Version 4
SHEET 1 1444 680
WIRE 1104 -480 -128 -480
WIRE 1232 -480 1104 -480
WIRE -592 -416 -720 -416
WIRE -720 -384 -720 -416
WIRE -592 -368 -592 -416
WIRE -432 -368 -592 -368
WIRE -128 -368 -128 -480
WIRE -128 -368 -256 -368
WIRE 752 -368 144 -368
WIRE 928 -368 752 -368
WIRE 960 -368 928 -368
WIRE 1232 -336 1232 -480
WIRE -432 -320 -592 -320
WIRE 960 -320 960 -368
WIRE -720 -288 -720 -304
WIRE -592 -288 -592 -320
WIRE -592 -288 -720 -288
WIRE 320 -240 -64 -240
WIRE 496 -240 320 -240
WIRE 752 -240 752 -368
WIRE -720 -224 -720 -288
WIRE -256 -112 -256 -304
WIRE -256 -112 -832 -112
WIRE 496 -112 496 -240
WIRE 320 -96 320 -240
WIRE 752 -96 752 -176
WIRE 960 -96 960 -240
WIRE 1232 -96 1232 -256
WIRE 144 96 144 -368
WIRE -64 112 -64 -240
WIRE 112 112 -64 112
WIRE 320 128 320 -32
WIRE 320 128 176 128
WIRE 496 128 496 -32
WIRE 496 128 320 128
WIRE 672 128 496 128
WIRE 896 128 752 128
WIRE 1168 128 896 128
WIRE -832 144 -832 -112
WIRE -784 144 -832 144
WIRE -544 144 -704 144
WIRE -288 144 -544 144
WIRE 112 144 -288 144
WIRE 896 240 896 128
WIRE -544 256 -544 144
WIRE -288 256 -288 144
WIRE -64 256 -64 112
WIRE -544 448 -544 320
WIRE -288 448 -288 336
WIRE -288 448 -544 448
WIRE -64 448 -64 336
WIRE -64 448 -288 448
WIRE 144 448 144 160
WIRE 144 448 -64 448
WIRE 896 448 896 304
WIRE 896 448 144 448
WIRE 1040 448 896 448
WIRE 1040 496 1040 448
WIRE 144 576 144 448
FLAG 144 576 0
FLAG 1040 496 0
FLAG 1168 128 ADC
FLAG 960 -96 0
FLAG 928 -368 +5V
FLAG -720 -224 0
FLAG 1232 -96 0
FLAG 752 -96 0
FLAG 1104 -480 +20V
SYMBOL OpAmps\\LTC1050 144 64 R0
SYMATTR InstName U1
SYMBOL res -304 240 R0
SYMATTR InstName R1
SYMATTR Value 100k
SYMBOL res -80 240 R0
SYMATTR InstName R2
SYMATTR Value 1k
SYMBOL cap -560 256 R0
SYMATTR InstName C1
SYMATTR Value 100n
SYMBOL res -688 128 R90
WINDOW 0 0 56 VBottom 2
WINDOW 3 32 56 VTop 2
SYMATTR InstName R5
SYMATTR Value 10k
SYMBOL res 480 -128 R0
SYMATTR InstName R3
SYMATTR Value 100k
SYMBOL cap 304 -96 R0
SYMATTR InstName C4
SYMATTR Value 0
SYMBOL res 768 112 R90
WINDOW 0 0 56 VBottom 2
WINDOW 3 32 56 VTop 2
SYMATTR InstName R6
SYMATTR Value 1k
SYMBOL cap 880 240 R0
SYMATTR InstName C2
SYMATTR Value 100n
SYMBOL voltage 960 -336 R0
WINDOW 123 0 0 Left 0
WINDOW 39 0 0 Left 0
SYMATTR InstName V1
SYMATTR Value SINE(5 0.05 50)
SYMBOL voltage -720 -400 R0
WINDOW 3 -337 60 Left 2
WINDOW 123 0 0 Left 0
WINDOW 39 0 0 Left 0
SYMATTR Value PULSE(0 1 0.2 0.1 0.1 5)
SYMATTR InstName V3
SYMBOL voltage 1232 -352 R0
WINDOW 123 0 0 Left 0
WINDOW 39 0 0 Left 0
SYMATTR InstName V2
SYMATTR Value SINE(20 0.2 50)
SYMBOL gaz -352 -352 R0
SYMATTR InstName X2
SYMBOL cap 736 -240 R0
SYMATTR InstName C3
SYMATTR Value 100n
TEXT 440 512 Left 2 !.tran 10
